<?xml version="1.0" encoding="UTF-8"?>
<!-- generated on 2025-04-18 14:24:46.175237 by randomTrips.py v1_11_0+0000-d32ff7d52a3
  options: -n Belo_Horizonte.net.xml -e 1000 -o Belo_Horizonte.trips.xml
-->
<routes xmlns:xsi="http://www.w3.org/2001/XMLSchema-instance" xsi:noNamespaceSchemaLocation="http://sumo.dlr.de/xsd/routes_file.xsd">
    <trip id="0" depart="0.00" from="378670417#3" to="-218733320#0"/>
    <trip id="1" depart="1.00" from="230296687" to="190729473"/>
    <trip id="2" depart="2.00" from="517465740" to="4600731#1"/>
    <trip id="3" depart="3.00" from="964362707" to="-4725013#1"/>
    <trip id="4" depart="4.00" from="279161377#0" to="-222585496#1"/>
    <trip id="5" depart="5.00" from="172426387" to="283262248"/>
    <trip id="6" depart="6.00" from="-222469873" to="152616166"/>
    <trip id="7" depart="7.00" from="411190119#1" to="289623982#1"/>
    <trip id="8" depart="8.00" from="181034071" to="29442357#8"/>
    <trip id="9" depart="9.00" from="815547616#1" to="-107918576"/>
    <trip id="10" depart="10.00" from="815547605" to="4902343#1"/>
    <trip id="11" depart="11.00" from="256207906#0" to="1035364167"/>
    <trip id="12" depart="12.00" from="9677604#1" to="256766862#0"/>
    <trip id="13" depart="13.00" from="-5364987#1" to="-8095264#1"/>
    <trip id="14" depart="14.00" from="945120647#3" to="30120518#2"/>
    <trip id="15" depart="15.00" from="815547609#1" to="5173216#5"/>
    <trip id="16" depart="16.00" from="287196810" to="970170412#1"/>
    <trip id="17" depart="17.00" from="278275446" to="28967387"/>
    <trip id="18" depart="18.00" from="884990515" to="344848748#1"/>
    <trip id="19" depart="19.00" from="959608352#0" to="29194290"/>
    <trip id="20" depart="20.00" from="497772945" to="-279099848"/>
    <trip id="21" depart="21.00" from="188993500#3" to="240380149#0"/>
    <trip id="22" depart="22.00" from="-386016128#0" to="218733208#4"/>
    <trip id="23" depart="23.00" from="-8095265#2" to="240377410#2"/>
    <trip id="24" depart="24.00" from="378662400#2" to="277880835"/>
    <trip id="25" depart="25.00" from="277012727" to="172426376#3"/>
    <trip id="26" depart="26.00" from="227729617#3" to="965755556#0"/>
    <trip id="27" depart="27.00" from="40863986#0" to="314280373#0"/>
    <trip id="28" depart="28.00" from="107547625#1" to="5173216#2"/>
    <trip id="29" depart="29.00" from="1035364175" to="278362041#1"/>
    <trip id="30" depart="30.00" from="9704059#0" to="386016124#1"/>
    <trip id="31" depart="31.00" from="28975076" to="4662914"/>
    <trip id="32" depart="32.00" from="936876469#0" to="736795114#2"/>
    <trip id="33" depart="33.00" from="188993501" to="-23448771"/>
    <trip id="34" depart="34.00" from="253062290#2" to="228144118#1"/>
    <trip id="35" depart="35.00" from="160511867#5" to="966012474#3"/>
    <trip id="36" depart="36.00" from="964011554#1" to="253069598"/>
    <trip id="37" depart="37.00" from="431312890" to="278697220#3"/>
    <trip id="38" depart="38.00" from="965064028" to="279484650#1"/>
    <trip id="39" depart="39.00" from="224943520#3" to="222469875#1"/>
    <trip id="40" depart="40.00" from="29123822" to="227814051#0"/>
    <trip id="41" depart="41.00" from="29232694#1" to="964420430#1"/>
    <trip id="42" depart="42.00" from="278539785" to="188992752#3"/>
    <trip id="43" depart="43.00" from="972079249#2" to="284019466#0"/>
    <trip id="44" depart="44.00" from="-4917906#1" to="-279252466"/>
    <trip id="45" depart="45.00" from="-82659312#1" to="375217685"/>
    <trip id="46" depart="46.00" from="8097827#2" to="279162764#0"/>
    <trip id="47" depart="47.00" from="-283261788#0" to="278398734#0"/>
    <trip id="48" depart="48.00" from="972079247#4" to="286637741#2"/>
    <trip id="49" depart="49.00" from="970169406" to="959599425"/>
    <trip id="50" depart="50.00" from="-134997252#3" to="5154372#1"/>
    <trip id="51" depart="51.00" from="4600753#0" to="288396087"/>
    <trip id="52" depart="52.00" from="227729617#3" to="386016125#2"/>
    <trip id="53" depart="53.00" from="-84545078#4" to="279348362#10"/>
    <trip id="54" depart="54.00" from="279414148" to="9677552#3"/>
    <trip id="55" depart="55.00" from="964011553" to="227814054#0"/>
    <trip id="56" depart="56.00" from="281465646#8" to="1168416177"/>
    <trip id="57" depart="57.00" from="965012853#0" to="963755877#3"/>
    <trip id="58" depart="58.00" from="244672364#1" to="386016120"/>
    <trip id="59" depart="59.00" from="30385264" to="1028708985#0"/>
    <trip id="60" depart="60.00" from="644050022#1" to="289089524#0"/>
    <trip id="61" depart="61.00" from="736795114#1" to="286977904"/>
    <trip id="62" depart="62.00" from="-100293143#2" to="255606409"/>
    <trip id="63" depart="63.00" from="-181034619" to="965739919"/>
    <trip id="64" depart="64.00" from="964019341" to="885395339"/>
    <trip id="65" depart="65.00" from="251992206#2" to="-280331694#2"/>
    <trip id="66" depart="66.00" from="964015254" to="966789700#0"/>
    <trip id="67" depart="67.00" from="-4566773" to="280765304#1"/>
    <trip id="68" depart="68.00" from="-289533703#5" to="644626591"/>
    <trip id="69" depart="69.00" from="656301129#1" to="-965731247"/>
    <trip id="70" depart="70.00" from="279968542" to="289666159#1"/>
    <trip id="71" depart="71.00" from="224943520#4" to="963778693#1"/>
    <trip id="72" depart="72.00" from="279161379#3" to="172426387"/>
    <trip id="73" depart="73.00" from="288063861#1" to="5173326#0"/>
    <trip id="74" depart="74.00" from="134997252#4" to="253062305#0"/>
    <trip id="75" depart="75.00" from="970442309" to="427921172#1"/>
    <trip id="76" depart="76.00" from="279252530#1" to="285073224"/>
    <trip id="77" depart="77.00" from="-884984288" to="197593194#1"/>
    <trip id="78" depart="78.00" from="256207897#2" to="29442357#4"/>
    <trip id="79" depart="79.00" from="196374467#0" to="188993274"/>
    <trip id="80" depart="80.00" from="-29123828#1" to="378662400#3"/>
    <trip id="81" depart="81.00" from="188993501" to="964691303#0"/>
    <trip id="82" depart="82.00" from="959599417#2" to="-29182639"/>
    <trip id="83" depart="83.00" from="218526311" to="4566432#0"/>
    <trip id="84" depart="84.00" from="172426371" to="-9677583#2"/>
    <trip id="85" depart="85.00" from="965749901#0" to="29192718#0"/>
    <trip id="86" depart="86.00" from="279578479" to="8095262#1"/>
    <trip id="87" depart="87.00" from="815547611" to="1338504299#1"/>
    <trip id="88" depart="88.00" from="-72722475#0" to="279164383#0"/>
    <trip id="89" depart="89.00" from="279161380" to="279574970#1"/>
    <trip id="90" depart="90.00" from="5171066#1" to="45978082#1"/>
    <trip id="91" depart="91.00" from="970173988#0" to="-8098286"/>
    <trip id="92" depart="92.00" from="278724707#0" to="256923549#0"/>
    <trip id="93" depart="93.00" from="959608352#0" to="222469876#7"/>
    <trip id="94" depart="94.00" from="1222456204#0" to="279464527#0"/>
    <trip id="95" depart="95.00" from="279161376" to="240377410#4"/>
    <trip id="96" depart="96.00" from="222236656#2" to="965725819"/>
    <trip id="97" depart="97.00" from="279352166#1" to="959601037"/>
    <trip id="98" depart="98.00" from="289623982#5" to="-279484836#0"/>
    <trip id="99" depart="99.00" from="972079255#2" to="890007898#1"/>
    <trip id="100" depart="100.00" from="970169187" to="965731248#0"/>
    <trip id="101" depart="101.00" from="945163859" to="107916724#3"/>
    <trip id="102" depart="102.00" from="280413189" to="181034071"/>
    <trip id="103" depart="103.00" from="278697220#1" to="-280874741"/>
    <trip id="104" depart="104.00" from="278275532" to="970173991#0"/>
    <trip id="105" depart="105.00" from="224943520#4" to="8095261"/>
    <trip id="106" depart="106.00" from="279464533" to="279162765#2"/>
    <trip id="107" depart="107.00" from="9677604#1" to="972079247#2"/>
    <trip id="108" depart="108.00" from="28967387" to="510486902#0"/>
    <trip id="109" depart="109.00" from="1028397103#3" to="251808227#0"/>
    <trip id="110" depart="110.00" from="970169186-AddedOffRampEdge" to="29221209#4"/>
    <trip id="111" depart="111.00" from="288919988#1" to="550446951#3"/>
    <trip id="112" depart="112.00" from="-280328819#1" to="293501353"/>
    <trip id="113" depart="113.00" from="281599130#3" to="9532060#1"/>
    <trip id="114" depart="114.00" from="1028701272#3" to="9677679#1"/>
    <trip id="115" depart="115.00" from="-386016128#1" to="1222457152"/>
    <trip id="116" depart="116.00" from="29457977#0" to="4600644#1"/>
    <trip id="117" depart="117.00" from="202714125" to="-9532058#0"/>
    <trip id="118" depart="118.00" from="964087368" to="222469873"/>
    <trip id="119" depart="119.00" from="29457969#0" to="347802656"/>
    <trip id="120" depart="120.00" from="279160688" to="293330667#1"/>
    <trip id="121" depart="121.00" from="285077315#0" to="965749900#1"/>
    <trip id="122" depart="122.00" from="1370011529#1" to="510486887#3"/>
    <trip id="123" depart="123.00" from="218733208#2" to="278697220#3"/>
    <trip id="124" depart="124.00" from="4560287#1" to="251870228#2"/>
    <trip id="125" depart="125.00" from="253062293" to="575643166"/>
    <trip id="126" depart="126.00" from="-29192719#1" to="279484649#0"/>
    <trip id="127" depart="127.00" from="972079249#5" to="972079247#5"/>
    <trip id="128" depart="128.00" from="-29221201" to="181034069#1"/>
    <trip id="129" depart="129.00" from="224943520#4" to="965746263"/>
    <trip id="130" depart="130.00" from="964033777#2" to="964019343"/>
    <trip id="131" depart="131.00" from="276726021#6" to="1035364176#1"/>
    <trip id="132" depart="132.00" from="886190224" to="497935297#0"/>
    <trip id="133" depart="133.00" from="30684435#1" to="970176806#1"/>
    <trip id="134" depart="134.00" from="427921171#0" to="-121427093#0"/>
    <trip id="135" depart="135.00" from="8658693#1" to="251870226#1"/>
    <trip id="136" depart="136.00" from="4527466#0" to="965969560#2"/>
    <trip id="137" depart="137.00" from="-965032703#0" to="-884984290"/>
    <trip id="138" depart="138.00" from="-8106567#1" to="28975076"/>
    <trip id="139" depart="139.00" from="227815553" to="30385264"/>
    <trip id="140" depart="140.00" from="5060663#1" to="160511867#4"/>
    <trip id="141" depart="141.00" from="378662391#1" to="227814684#0"/>
    <trip id="142" depart="142.00" from="280414000#1" to="964691303#0"/>
    <trip id="143" depart="143.00" from="945120645" to="-644050022#1"/>
    <trip id="144" depart="144.00" from="279161380" to="240377407#2"/>
    <trip id="145" depart="145.00" from="-1035364163" to="70944848#0"/>
    <trip id="146" depart="146.00" from="378670412#0" to="227809967#1"/>
    <trip id="147" depart="147.00" from="518693519" to="28967117"/>
    <trip id="148" depart="148.00" from="279162764#0" to="-1222457152"/>
    <trip id="149" depart="149.00" from="-29468392" to="964038112"/>
    <trip id="150" depart="150.00" from="964435739#0" to="289623982#4"/>
    <trip id="151" depart="151.00" from="889469868" to="292782121"/>
    <trip id="152" depart="152.00" from="1025610837" to="-964698527"/>
    <trip id="153" depart="153.00" from="251992206#6" to="964426073"/>
    <trip id="154" depart="154.00" from="8106560#0" to="959599424"/>
    <trip id="155" depart="155.00" from="964426071" to="172426377#1"/>
    <trip id="156" depart="156.00" from="222236656#1" to="-8106563"/>
    <trip id="157" depart="157.00" from="74395823#2" to="964074553#0"/>
    <trip id="158" depart="158.00" from="278736308#1" to="356685168"/>
    <trip id="159" depart="159.00" from="1028397103#2" to="965739923#0"/>
    <trip id="160" depart="160.00" from="963030989#0" to="970172102#2"/>
    <trip id="161" depart="161.00" from="815576213#1" to="964033778#0"/>
    <trip id="162" depart="162.00" from="-218733208#4" to="518112759#0"/>
    <trip id="163" depart="163.00" from="256164181" to="965739926"/>
    <trip id="164" depart="164.00" from="8106596" to="962025781#2"/>
    <trip id="165" depart="165.00" from="815576213#1" to="227815901#0"/>
    <trip id="166" depart="166.00" from="8095265#2" to="-84548482"/>
    <trip id="167" depart="167.00" from="963777812" to="959592269"/>
    <trip id="168" depart="168.00" from="188964971#0" to="8661189#0"/>
    <trip id="169" depart="169.00" from="279478624#2" to="253055132#2"/>
    <trip id="170" depart="170.00" from="8106557" to="202714012#0"/>
    <trip id="171" depart="171.00" from="-218733208#0" to="134997251"/>
    <trip id="172" depart="172.00" from="253082665#0" to="962025782"/>
    <trip id="173" depart="173.00" from="970169182#0" to="240377410#7"/>
    <trip id="174" depart="174.00" from="379236410#2" to="278727381#1"/>
    <trip id="175" depart="175.00" from="970173555" to="288357115"/>
    <trip id="176" depart="176.00" from="965969563#1" to="-884984290"/>
    <trip id="177" depart="177.00" from="970169403#1" to="1168416177"/>
    <trip id="178" depart="178.00" from="970166464" to="227815110#0-AddedOnRampEdge"/>
    <trip id="179" depart="179.00" from="-8106592#1" to="279348362#1"/>
    <trip id="180" depart="180.00" from="516487827#0" to="253062336#3"/>
    <trip id="181" depart="181.00" from="299672709#2" to="284021502#6"/>
    <trip id="182" depart="182.00" from="278362041#1" to="29193869"/>
    <trip id="183" depart="183.00" from="222469876#7" to="498068498#0"/>
    <trip id="184" depart="184.00" from="-1025613949#1" to="965730528"/>
    <trip id="185" depart="185.00" from="287525623#0" to="510511170#2"/>
    <trip id="186" depart="186.00" from="518694394#0" to="4566772#3"/>
    <trip id="187" depart="187.00" from="276278697" to="-29123828#0"/>
    <trip id="188" depart="188.00" from="4527482#1" to="256207892#1"/>
    <trip id="189" depart="189.00" from="253055181#2" to="945163857"/>
    <trip id="190" depart="190.00" from="510486887#3" to="251870228#3"/>
    <trip id="191" depart="191.00" from="251992220" to="279099847-AddedOffRampEdge"/>
    <trip id="192" depart="192.00" from="278697220#6" to="244672380#4"/>
    <trip id="193" depart="193.00" from="-9532060#3" to="279161393#1"/>
    <trip id="194" depart="194.00" from="965990804#0" to="4600739#1"/>
    <trip id="195" depart="195.00" from="964426079" to="31654388"/>
    <trip id="196" depart="196.00" from="244672380#2" to="289666156#2"/>
    <trip id="197" depart="197.00" from="-100293143#1" to="240380145#2"/>
    <trip id="198" depart="198.00" from="279162767" to="29232694#0"/>
    <trip id="199" depart="199.00" from="427921172#1" to="279546109#2"/>
    <trip id="200" depart="200.00" from="279348362#9" to="181034071"/>
    <trip id="201" depart="201.00" from="279579186" to="964426078#5"/>
    <trip id="202" depart="202.00" from="8106560#0" to="108135528"/>
    <trip id="203" depart="203.00" from="-454269548" to="284136901#1"/>
    <trip id="204" depart="204.00" from="378662382" to="256766495#0"/>
    <trip id="205" depart="205.00" from="8661210#0" to="568364898#4"/>
    <trip id="206" depart="206.00" from="4566432#0" to="197593194#1"/>
    <trip id="207" depart="207.00" from="1348997680" to="-218733208#3"/>
    <trip id="208" depart="208.00" from="221973630#1" to="280327364#0"/>
    <trip id="209" depart="209.00" from="945219530" to="-29221202"/>
    <trip id="210" depart="210.00" from="279099869#0" to="378662391#3"/>
    <trip id="211" depart="211.00" from="128197842" to="4894306#0"/>
    <trip id="212" depart="212.00" from="280940882" to="222236657#0"/>
    <trip id="213" depart="213.00" from="447790612" to="-107916724#4"/>
    <trip id="214" depart="214.00" from="550446951#1" to="699964174#2"/>
    <trip id="215" depart="215.00" from="-8106564#1" to="279162770#2"/>
    <trip id="216" depart="216.00" from="108140359" to="9677607#0"/>
    <trip id="217" depart="217.00" from="284047058#0" to="-279478372"/>
    <trip id="218" depart="218.00" from="222236656#0" to="945163859"/>
    <trip id="219" depart="219.00" from="279465214#1" to="8107784#5"/>
    <trip id="220" depart="220.00" from="4543345#0" to="970176806#4"/>
    <trip id="221" depart="221.00" from="29457977#5" to="9677440#0"/>
    <trip id="222" depart="222.00" from="964353751#0" to="31559242"/>
    <trip id="223" depart="223.00" from="510486887#1" to="283261788#0"/>
    <trip id="224" depart="224.00" from="885051410#1" to="289666156#2"/>
    <trip id="225" depart="225.00" from="964415656#1" to="5364983"/>
    <trip id="226" depart="226.00" from="279968533#0" to="224943520#0"/>
    <trip id="227" depart="227.00" from="222005589" to="380951410"/>
    <trip id="228" depart="228.00" from="656301129#1" to="285603382#1"/>
    <trip id="229" depart="229.00" from="358275980#0-AddedOffRampEdge" to="240298828"/>
    <trip id="230" depart="230.00" from="-314275942#1" to="240380141#1"/>
    <trip id="231" depart="231.00" from="227815528" to="253082653#0"/>
    <trip id="232" depart="232.00" from="288357115" to="1013858085#2"/>
    <trip id="233" depart="233.00" from="197593194#1" to="4887850"/>
    <trip id="234" depart="234.00" from="497789345#2" to="-285603008"/>
    <trip id="235" depart="235.00" from="278912556#0" to="289549128"/>
    <trip id="236" depart="236.00" from="279099896#4" to="161536133#0-AddedOnRampEdge"/>
    <trip id="237" depart="237.00" from="279160690#5" to="964691300#1"/>
    <trip id="238" depart="238.00" from="29221213" to="4892460-AddedOffRampEdge"/>
    <trip id="239" depart="239.00" from="959546321#1" to="664436112#1"/>
    <trip id="240" depart="240.00" from="278292413#0" to="-107916724#5"/>
    <trip id="241" depart="241.00" from="266432234#0" to="577365176"/>
    <trip id="242" depart="242.00" from="9532060#4" to="9677552#2"/>
    <trip id="243" depart="243.00" from="279160687#3" to="550446951#1"/>
    <trip id="244" depart="244.00" from="289533703#5" to="30120518#0"/>
    <trip id="245" depart="245.00" from="181034071" to="188992752#4"/>
    <trip id="246" depart="246.00" from="279164147#1" to="-222585220#0"/>
    <trip id="247" depart="247.00" from="256199406" to="4600798#1"/>
    <trip id="248" depart="248.00" from="278725055" to="107120215#8"/>
    <trip id="249" depart="249.00" from="279484950#2" to="-964698527"/>
    <trip id="250" depart="250.00" from="336135639#0" to="-222469876#3"/>
    <trip id="251" depart="251.00" from="278513953#0" to="29182630#0"/>
    <trip id="252" depart="252.00" from="-222469876#1" to="392267560#1"/>
    <trip id="253" depart="253.00" from="-965990804#0" to="279484950#2"/>
    <trip id="254" depart="254.00" from="-279478186" to="278361746#1"/>
    <trip id="255" depart="255.00" from="160511867#7" to="256189196#1"/>
    <trip id="256" depart="256.00" from="61673077" to="278361746#1"/>
    <trip id="257" depart="257.00" from="550447876" to="885395340"/>
    <trip id="258" depart="258.00" from="222469872#0" to="-447790614"/>
    <trip id="259" depart="259.00" from="-181034080" to="289089524#0"/>
    <trip id="260" depart="260.00" from="972079255#4" to="269690104"/>
    <trip id="261" depart="261.00" from="41280266" to="789135368"/>
    <trip id="262" depart="262.00" from="42005526#1" to="577365179"/>
    <trip id="263" depart="263.00" from="9677437#1" to="152616168#1"/>
    <trip id="264" depart="264.00" from="-197593194#0" to="1028708983#3"/>
    <trip id="265" depart="265.00" from="-9532058#2" to="4566432#4"/>
    <trip id="266" depart="266.00" from="29123831" to="188992751#4"/>
    <trip id="267" depart="267.00" from="488882038#0" to="669480954#0"/>
    <trip id="268" depart="268.00" from="1037191320#0" to="30684436"/>
    <trip id="269" depart="269.00" from="5364984#3" to="-884668794"/>
    <trip id="270" depart="270.00" from="8661218#0" to="970168110#0"/>
    <trip id="271" depart="271.00" from="-8106592#0" to="-222469870"/>
    <trip id="272" depart="272.00" from="253055137#1" to="4600743#0"/>
    <trip id="273" depart="273.00" from="9677607#0" to="278724707#0"/>
    <trip id="274" depart="274.00" from="4986617" to="-30636627#1"/>
    <trip id="275" depart="275.00" from="4680936#0" to="370658139#0"/>
    <trip id="276" depart="276.00" from="-8097763" to="70944858#0"/>
    <trip id="277" depart="277.00" from="9532047#1" to="297342363#1"/>
    <trip id="278" depart="278.00" from="-884984290" to="970173986#1"/>
    <trip id="279" depart="279.00" from="788748798" to="266432236#4"/>
    <trip id="280" depart="280.00" from="279162765#1" to="278266548"/>
    <trip id="281" depart="281.00" from="282186017#2" to="256924424#1"/>
    <trip id="282" depart="282.00" from="945219530" to="8662668"/>
    <trip id="283" depart="283.00" from="-8106562#0" to="9677679#1"/>
    <trip id="284" depart="284.00" from="378662400#1" to="884984287#0"/>
    <trip id="285" depart="285.00" from="497935295" to="279348362#13"/>
    <trip id="286" depart="286.00" from="5173351#1" to="970169176"/>
    <trip id="287" depart="287.00" from="227814684#1" to="815549713#1"/>
    <trip id="288" depart="288.00" from="287525605#7" to="280759939"/>
    <trip id="289" depart="289.00" from="279164146#1" to="5173525#2"/>
    <trip id="290" depart="290.00" from="227812175#2" to="9532058#0"/>
    <trip id="291" depart="291.00" from="885124556" to="-4725013#0"/>
    <trip id="292" depart="292.00" from="964033778#0" to="222236656#3"/>
    <trip id="293" depart="293.00" from="279484650#0" to="314924435#2"/>
    <trip id="294" depart="294.00" from="278275532" to="-222585219#2"/>
    <trip id="295" depart="295.00" from="9532053#3" to="1222456203#1"/>
    <trip id="296" depart="296.00" from="161536113#0" to="8106567#4"/>
    <trip id="297" depart="297.00" from="256207906#0" to="964033777#1"/>
    <trip id="298" depart="298.00" from="4894550#0" to="240299063#0"/>
    <trip id="299" depart="299.00" from="-1349034550#0" to="967580360#0"/>
    <trip id="300" depart="300.00" from="-4566773" to="513276757"/>
    <trip id="301" depart="301.00" from="280414000#1" to="61673077-AddedOffRampEdge"/>
    <trip id="302" depart="302.00" from="4680936#0" to="42005239#1"/>
    <trip id="303" depart="303.00" from="280765131" to="8106557"/>
    <trip id="304" depart="304.00" from="-550446951#0" to="188993500#4"/>
    <trip id="305" depart="305.00" from="4695355#1" to="253055141"/>
    <trip id="306" depart="306.00" from="29194226#0" to="280247434#1"/>
    <trip id="307" depart="307.00" from="285883731#4" to="279162772"/>
    <trip id="308" depart="308.00" from="5204187" to="256207895#1"/>
    <trip id="309" depart="309.00" from="4902344#0" to="236734221#1"/>
    <trip id="310" depart="310.00" from="222469868" to="-9532058#3"/>
    <trip id="311" depart="311.00" from="1222457152" to="-9532053#4"/>
    <trip id="312" depart="312.00" from="287149438#2" to="656301129#0"/>
    <trip id="313" depart="313.00" from="121427093#0" to="188964971#2"/>
    <trip id="314" depart="314.00" from="280412802#5" to="516261784"/>
    <trip id="315" depart="315.00" from="970172104" to="285774889#1"/>
    <trip id="316" depart="316.00" from="240377408#1" to="-8106559"/>
    <trip id="317" depart="317.00" from="126251297" to="202714010"/>
    <trip id="318" depart="318.00" from="1137563306" to="-152616168#1"/>
    <trip id="319" depart="319.00" from="286637741#4-AddedOffRampEdge" to="240298826#1"/>
    <trip id="320" depart="320.00" from="970170414" to="28975076"/>
    <trip id="321" depart="321.00" from="4880554#2" to="-964085841#0"/>
    <trip id="322" depart="322.00" from="963706297#1" to="281389192"/>
    <trip id="323" depart="323.00" from="963778693#1" to="29192741#0"/>
    <trip id="324" depart="324.00" from="279485805#0" to="279401796#3"/>
    <trip id="325" depart="325.00" from="118649559" to="-279485805#2"/>
    <trip id="326" depart="326.00" from="965997784#0" to="280383296#2"/>
    <trip id="327" depart="327.00" from="8662667#0" to="278736310"/>
    <trip id="328" depart="328.00" from="-293501360" to="378662391#1"/>
    <trip id="329" depart="329.00" from="-279968510" to="1028398161#2"/>
    <trip id="330" depart="330.00" from="29123825#1" to="251992223#1"/>
    <trip id="331" depart="331.00" from="9704086#0" to="-9532047#0"/>
    <trip id="332" depart="332.00" from="645354322" to="30636945#0"/>
    <trip id="333" depart="333.00" from="8097768" to="197593197"/>
    <trip id="334" depart="334.00" from="285077315#0" to="279465214#1"/>
    <trip id="335" depart="335.00" from="279348365#1" to="959599419#0"/>
    <trip id="336" depart="336.00" from="9704059#2" to="253055133"/>
    <trip id="337" depart="337.00" from="320750656#0" to="314285902"/>
    <trip id="338" depart="338.00" from="517467234" to="966813466"/>
    <trip id="339" depart="339.00" from="160511851" to="172426382"/>
    <trip id="340" depart="340.00" from="4498809#14" to="1035364173"/>
    <trip id="341" depart="341.00" from="107918576" to="-29468414#0"/>
    <trip id="342" depart="342.00" from="-1028708985#1" to="279465214#1"/>
    <trip id="343" depart="343.00" from="29457955#0" to="240380442#1"/>
    <trip id="344" depart="344.00" from="197593194#2" to="497935310"/>
    <trip id="345" depart="345.00" from="4902344#1" to="279478624#1"/>
    <trip id="346" depart="346.00" from="4608763#0" to="965725820"/>
    <trip id="347" depart="347.00" from="8095290#0" to="366029358#1"/>
    <trip id="348" depart="348.00" from="4515352#0" to="965746265#0"/>
    <trip id="349" depart="349.00" from="279161389" to="289623982#0"/>
    <trip id="350" depart="350.00" from="40863956" to="964721094#2"/>
    <trip id="351" depart="351.00" from="880533725#0" to="-29192719#0"/>
    <trip id="352" depart="352.00" from="1037191316#1" to="253055181#2"/>
    <trip id="353" depart="353.00" from="5364987#1" to="29184697#2"/>
    <trip id="354" depart="354.00" from="240380127#2" to="-964011554#0"/>
    <trip id="355" depart="355.00" from="4678361#0" to="497546060#0"/>
    <trip id="356" depart="356.00" from="966005058#0" to="282186016#1"/>
    <trip id="357" depart="357.00" from="28093730#0" to="-427921171#0"/>
    <trip id="358" depart="358.00" from="-278231130#0" to="279252530#0"/>
    <trip id="359" depart="359.00" from="253072124#11" to="222585220#0"/>
    <trip id="360" depart="360.00" from="-498285203" to="970166461#0"/>
    <trip id="361" depart="361.00" from="890007898#2" to="29192744#0"/>
    <trip id="362" depart="362.00" from="9677455#0" to="972079255#3"/>
    <trip id="363" depart="363.00" from="456189029#0" to="23432915#1"/>
    <trip id="364" depart="364.00" from="-278231130#1" to="580613826"/>
    <trip id="365" depart="365.00" from="279546109#1" to="438469189"/>
    <trip id="366" depart="366.00" from="965646653" to="1222455752"/>
    <trip id="367" depart="367.00" from="29267377" to="378670418#0"/>
    <trip id="368" depart="368.00" from="280809625" to="-550446951#2"/>
    <trip id="369" depart="369.00" from="256924424#2" to="256207903"/>
    <trip id="370" depart="370.00" from="4543352" to="959588029"/>
    <trip id="371" depart="371.00" from="254586866" to="4880554#3"/>
    <trip id="372" depart="372.00" from="240380127#1" to="966555434"/>
    <trip id="373" depart="373.00" from="84545078#2" to="289666159#2"/>
    <trip id="374" depart="374.00" from="279464533" to="253069598"/>
    <trip id="375" depart="375.00" from="253072124#3" to="970169403#0"/>
    <trip id="376" depart="376.00" from="278725054#2" to="284047059#4"/>
    <trip id="377" depart="377.00" from="970176806#4" to="4515352#2"/>
    <trip id="378" depart="378.00" from="288922860#0" to="279160687#2"/>
    <trip id="379" depart="379.00" from="1222455749#0" to="276283731#0"/>
    <trip id="380" depart="380.00" from="575643601#1" to="366392991#1"/>
    <trip id="381" depart="381.00" from="59612433#0" to="160511867#4"/>
    <trip id="382" depart="382.00" from="289623982#1" to="965739913#1"/>
    <trip id="383" depart="383.00" from="279252531" to="4902344#0"/>
    <trip id="384" depart="384.00" from="-884990514" to="970170412#1"/>
    <trip id="385" depart="385.00" from="30385259" to="221975341"/>
    <trip id="386" depart="386.00" from="1028707601#1" to="289666165#1"/>
    <trip id="387" depart="387.00" from="289666156#2" to="-675560217#0"/>
    <trip id="388" depart="388.00" from="9704065" to="965027589#1"/>
    <trip id="389" depart="389.00" from="279478873" to="-929673545#0"/>
    <trip id="390" depart="390.00" from="885500883" to="281599314#1"/>
    <trip id="391" depart="391.00" from="5060449#2" to="284015064#0-AddedOnRampEdge"/>
    <trip id="392" depart="392.00" from="228144118#0" to="889469868"/>
    <trip id="393" depart="393.00" from="970173551" to="222236656#3"/>
    <trip id="394" depart="394.00" from="289660483#1" to="278401415"/>
    <trip id="395" depart="395.00" from="965708834#0" to="284015050#1-AddedOnRampEdge"/>
    <trip id="396" depart="396.00" from="964019343" to="962025781#2"/>
    <trip id="397" depart="397.00" from="23448772" to="8097827#1"/>
    <trip id="398" depart="398.00" from="279099894#0" to="965749899#1"/>
    <trip id="399" depart="399.00" from="282340560#3" to="8662311"/>
    <trip id="400" depart="400.00" from="240377408#0" to="251870223#0"/>
    <trip id="401" depart="401.00" from="292968646" to="972079253"/>
    <trip id="402" depart="402.00" from="280761616#2" to="1028397103#5"/>
    <trip id="403" depart="403.00" from="287525623#1" to="265652521#2"/>
    <trip id="404" depart="404.00" from="289666155#0" to="289550420"/>
    <trip id="405" depart="405.00" from="279464542#2" to="253082665#0"/>
    <trip id="406" depart="406.00" from="1222456203#1" to="4902340"/>
    <trip id="407" depart="407.00" from="29183536" to="219554131"/>
    <trip id="408" depart="408.00" from="70944858#0" to="-278724707#1"/>
    <trip id="409" depart="409.00" from="518718610#1" to="497935302#1"/>
    <trip id="410" depart="410.00" from="815576432#1" to="278451486"/>
    <trip id="411" depart="411.00" from="4527466#1" to="8662312"/>
    <trip id="412" depart="412.00" from="970173553" to="281465646#7"/>
    <trip id="413" depart="413.00" from="-276277633" to="282335130#0"/>
    <trip id="414" depart="414.00" from="29433039#4" to="963740918"/>
    <trip id="415" depart="415.00" from="964011546" to="279401796#2"/>