<?xml version="1.0" encoding="UTF-8"?>

<!-- generated on 2025-03-25 08:16:33.533776 by randomTrips.py UNKNOWN
<configuration>
    <net-file value="Belo_Horizonte.net.xml"/>
    <output-trip-file value="Belo_Horizonte.trips.xml"/>
    <end value="1000.0"/>
</configuration>
-->

<routes xmlns:xsi="http://www.w3.org/2001/XMLSchema-instance" xsi:noNamespaceSchemaLocation="http://sumo.dlr.de/xsd/routes_file.xsd">
    <trip id="0" depart="0.00" from="378662400#3" to="-218733208#3"/>
    <trip id="1" depart="1.00" from="236734221#1" to="202712913#0"/>
    <trip id="2" depart="2.00" from="5173216#0" to="4569093#5"/>
    <trip id="3" depart="3.00" from="964081756#1" to="-4607269#0"/>
    <trip id="4" depart="4.00" from="279160695#2" to="-222585220#0"/>
    <trip id="5" depart="5.00" from="188964971#0" to="283230762#0"/>
    <trip id="6" depart="6.00" from="-222469870" to="160511863#3"/>
    <trip id="7" depart="7.00" from="392267559" to="289533703#2"/>
    <trip id="8" depart="8.00" from="188992751#3" to="293330669"/>
    <trip id="9" depart="9.00" from="8106596" to="-107918576"/>
    <trip id="10" depart="10.00" from="8106563" to="4880554#2"/>
    <trip id="11" depart="11.00" from="256207906#0" to="1035364177"/>
    <trip id="12" depart="12.00" from="9677552#2" to="256766856"/>
    <trip id="13" depart="13.00" from="-504127392" to="-8066189"/>
    <trip id="14" depart="14.00" from="90844104#1" to="297342363#2"/>
    <trip id="15" depart="15.00" from="8106567#1" to="516261782#1"/>
    <trip id="16" depart="16.00" from="286637229" to="970169189#1"/>
    <trip id="17" depart="17.00" from="278275053" to="289666156#3"/>
    <trip id="18" depart="18.00" from="8662667#0" to="31654388"/>
    <trip id="19" depart="19.00" from="9532109" to="29192719#1"/>
    <trip id="20" depart="20.00" from="4892460" to="-278916857"/>
    <trip id="21" depart="21.00" from="197593195#0" to="240380442#0"/>
    <trip id="22" depart="22.00" from="-347802656" to="219663757#2"/>
    <trip id="23" depart="23.00" from="-8095262#0" to="240380120#0"/>
    <trip id="24" depart="24.00" from="375217685" to="277879978"/>
    <trip id="25" depart="25.00" from="276726021#6" to="181034070#1"/>
    <trip id="26" depart="26.00" from="227811505#1" to="965746265#0"/>
    <trip id="27" depart="27.00" from="386016125#0" to="30636628"/>
    <trip id="28" depart="28.00" from="107919321#0" to="516260875"/>
    <trip id="29" depart="29.00" from="1037191316#1" to="278361651#1"/>
    <trip id="30" depart="30.00" from="970176521#0" to="380951415#0"/>
    <trip id="31" depart="31.00" from="289666156#4" to="4605642#1"/>
    <trip id="32" depart="32.00" from="890000957" to="675560217#1"/>
    <trip id="33" depart="33.00" from="201182787" to="-23432915#2"/>
    <trip id="34" depart="34.00" from="253062290#3" to="23432915#1"/>
    <trip id="35" depart="35.00" from="172426372" to="965969564"/>
    <trip id="36" depart="36.00" from="963698212#1" to="253069599"/>
    <trip id="37" depart="37.00" from="425343182#2" to="278697220#2"/>
    <trip id="38" depart="38.00" from="964730907#0" to="279484650#1"/>
    <trip id="39" depart="39.00" from="225017366" to="222469876#3"/>
    <trip id="40" depart="40.00" from="28975217#0" to="227814054#2"/>
    <trip id="41" depart="41.00" from="29192744#3" to="964387566#0"/>
    <trip id="42" depart="42.00" from="278538157#6" to="190729473"/>
    <trip id="43" depart="43.00" from="9704086#2" to="284015050#1"/>
    <trip id="44" depart="44.00" from="-4902343#0" to="-279099896#1"/>
    <trip id="45" depart="45.00" from="-8106592#0" to="361219111#1"/>
    <trip id="46" depart="46.00" from="788748799" to="279162765#1"/>
    <trip id="47" depart="47.00" from="-282186017#2" to="278371043#2"/>
    <trip id="48" depart="48.00" from="9704066#1" to="285880983#1"/>
    <trip id="49" depart="49.00" from="970169182#2" to="9532060#4"/>
    <trip id="50" depart="50.00" from="-134997252#1" to="5098727#0"/>
    <trip id="51" depart="51.00" from="45978082#1" to="287525605#7"/>
    <trip id="52" depart="52.00" from="227811505#1" to="386016117#0"/>
    <trip id="53" depart="53.00" from="-82659312#3" to="279348362#13"/>
    <trip id="54" depart="54.00" from="279414149#0" to="9677440#2"/>
    <trip id="55" depart="55.00" from="963686718-AddedOffRampEdge" to="227814905#0"/>
    <trip id="56" depart="56.00" from="281465646#3" to="1222456203#6"/>
    <trip id="57" depart="57.00" from="964727549#0" to="959608353#2"/>
    <trip id="58" depart="58.00" from="244672371#4" to="379236410#2"/>
    <trip id="59" depart="59.00" from="299672709#0" to="1033873898#0"/>
    <trip id="60" depart="60.00" from="568364898#6" to="288357116"/>
    <trip id="61" depart="61.00" from="669480953#1" to="285893935#0"/>
    <trip id="62" depart="62.00" from="-100293143#2" to="255606409-AddedOffRampEdge"/>
    <trip id="63" depart="63.00" from="-181034075" to="965727848"/>
    <trip id="64" depart="64.00" from="963755877#2" to="8662673#1"/>
    <trip id="65" depart="65.00" from="251992206#3" to="-280330386"/>
    <trip id="66" depart="66.00" from="963740918" to="966301925#1"/>
    <trip id="67" depart="67.00" from="-454269548" to="280765131"/>
    <trip id="68" depart="68.00" from="-287874108" to="575643601#1"/>
    <trip id="69" depart="69.00" from="580613821#1" to="-964426080"/>
    <trip id="70" depart="70.00" from="279968533#0" to="289660480#2"/>
    <trip id="71" depart="71.00" from="227729617#0" to="959904834"/>
    <trip id="72" depart="72.00" from="279161381" to="181134377"/>
    <trip id="73" depart="73.00" from="287149438#2" to="516261783"/>
    <trip id="74" depart="74.00" from="152616162" to="253062305#1"/>
    <trip id="75" depart="75.00" from="9704063#4" to="425343182#1"/>
    <trip id="76" depart="76.00" from="279252531" to="284070186"/>
    <trip id="77" depart="77.00" from="-884665153" to="202714012#0"/>
    <trip id="78" depart="78.00" from="256207897#2" to="293037232#2"/>
    <trip id="79" depart="79.00" from="202712913#2" to="196374470#0"/>
    <trip id="80" depart="80.00" from="-28967117" to="378662382"/>
    <trip id="81" depart="81.00" from="201182787" to="964426079"/>
    <trip id="82" depart="82.00" from="9532058#2" to="-28975512#3"/>
    <trip id="83" depart="83.00" from="218733321#0" to="4543351#4"/>
    <trip id="84" depart="84.00" from="172426389" to="-9677544#1"/>
    <trip id="85" depart="85.00" from="965746261" to="29183532#1"/>
    <trip id="86" depart="86.00" from="279578479" to="736795114#0"/>
    <trip id="87" depart="87.00" from="8106567#3" to="134997252#4"/>
    <trip id="88" depart="88.00" from="-673241575" to="279164383#1"/>
    <trip id="89" depart="89.00" from="279161386#0" to="279574970#1"/>
    <trip id="90" depart="90.00" from="510511172" to="4566772#3"/>
    <trip id="91" depart="91.00" from="970173560" to="-8095265#1"/>
    <trip id="92" depart="92.00" from="278697220#5" to="256923548"/>
    <trip id="93" depart="93.00" from="9532109" to="222585219#2"/>
    <trip id="94" depart="94.00" from="128197842" to="279464533"/>
    <trip id="95" depart="95.00" from="279160695#2" to="240380120#2"/>
    <trip id="96" depart="96.00" from="222236657#3" to="965690888"/>
    <trip id="97" depart="97.00" from="279366767#0" to="9532068"/>
    <trip id="98" depart="98.00" from="289533703#7" to="-279478186"/>
    <trip id="99" depart="99.00" from="972079250" to="884984287#0"/>
    <trip id="100" depart="100.00" from="970168110#2" to="965708833-AddedOffRampEdge"/>
    <trip id="101" depart="101.00" from="929673546#0" to="108135527#0"/>
    <trip id="102" depart="102.00" from="280413141" to="188992751#2"/>
    <trip id="103" depart="103.00" from="278582180#1" to="-280331694#2"/>
    <trip id="104" depart="104.00" from="278275446" to="970173565#0"/>
    <trip id="105" depart="105.00" from="227729617#0" to="727630526#1"/>
    <trip id="106" depart="106.00" from="279464542#1" to="279162766#1"/>
    <trip id="107" depart="107.00" from="9677552#3" to="9704066#0"/>
    <trip id="108" depart="108.00" from="289666155#0" to="5060449#0"/>
    <trip id="109" depart="109.00" from="1027717826#0" to="251869887#0"/>
    <trip id="110" depart="110.00" from="970168110#0" to="29192741#2"/>
    <trip id="111" depart="111.00" from="287808827" to="518718615#0"/>
    <trip id="112" depart="112.00" from="-280327364#0" to="29221209#3"/>
    <trip id="113" depart="113.00" from="281553266#2" to="936884775#5"/>
    <trip id="114" depart="114.00" from="1028701271" to="9677604#4"/>
    <trip id="115" depart="115.00" from="-366029358#1" to="1338494550"/>
    <trip id="116" depart="116.00" from="294165730" to="456753384#0"/>
    <trip id="117" depart="117.00" from="218733208#1" to="-9532047#1"/>
    <trip id="118" depart="118.00" from="964074555#0" to="222469876#2"/>
    <trip id="119" depart="119.00" from="293501360" to="320750656#0"/>
    <trip id="120" depart="120.00" from="279160687#3" to="29221209#1"/>
    <trip id="121" depart="121.00" from="284136901#2" to="965740412#1"/>
    <trip id="122" depart="122.00" from="160511851" to="498068503"/>
    <trip id="123" depart="123.00" from="219663757#0" to="278697220#2"/>
    <trip id="124" depart="124.00" from="4543349#0" to="251870228#3"/>
    <trip id="125" depart="125.00" from="253062295#0" to="5364986#0"/>
    <trip id="126" depart="126.00" from="-29123828#2" to="279484649#0"/>
    <trip id="127" depart="127.00" from="9704153#1" to="9704066#3"/>
    <trip id="128" depart="128.00" from="-29183536" to="188992163"/>
    <trip id="129" depart="129.00" from="227729617#0" to="965739922#0"/>
    <trip id="130" depart="130.00" from="963778694" to="963774214"/>
    <trip id="131" depart="131.00" from="276726021#4" to="1037191317"/>
    <trip id="132" depart="132.00" from="879114003" to="4902344#2"/>
    <trip id="133" depart="133.00" from="30120522#1" to="970173988#1"/>
    <trip id="134" depart="134.00" from="42005239#0" to="-121427093#0"/>
    <trip id="135" depart="135.00" from="815549711" to="251870228#1"/>
    <trip id="136" depart="136.00" from="4498809#12" to="965749901#0"/>
    <trip id="137" depart="137.00" from="-964426079" to="-884665153"/>
    <trip id="138" depart="138.00" from="-8106562#2" to="289666157#2"/>
    <trip id="139" depart="139.00" from="228144120#0" to="299672709#1"/>
    <trip id="140" depart="140.00" from="497943938" to="161536133#1"/>
    <trip id="141" depart="141.00" from="366392994#1" to="227814905#1"/>
    <trip id="142" depart="142.00" from="280413904#2" to="964426079"/>
    <trip id="143" depart="143.00" from="890533375#0" to="-550446951#1"/>
    <trip id="144" depart="144.00" from="279161386#0" to="240377410#4"/>
    <trip id="145" depart="145.00" from="-1035364163" to="656716948#0"/>
    <trip id="146" depart="146.00" from="378662388#0" to="227814051#1"/>
    <trip id="147" depart="147.00" from="517465742" to="289666156#1"/>
    <trip id="148" depart="148.00" from="279162765#1" to="-121430176"/>
    <trip id="149" depart="149.00" from="-293501360" to="964011554#0"/>
    <trip id="150" depart="150.00" from="964426070" to="289533703#6"/>
    <trip id="151" depart="151.00" from="884632446" to="29221201"/>
    <trip id="152" depart="152.00" from="1024976431#1" to="-964048273"/>
    <trip id="153" depart="153.00" from="251992206#7" to="964387567#4"/>
    <trip id="154" depart="154.00" from="8095264#0" to="9532060#3"/>
    <trip id="155" depart="155.00" from="964387567#4" to="181034075"/>
    <trip id="156" depart="156.00" from="222236657#2" to="-8106561#1"/>
    <trip id="157" depart="157.00" from="681294431#1" to="964012731"/>
    <trip id="158" depart="158.00" from="278734736#0" to="336135639#1"/>
    <trip id="159" depart="159.00" from="1027717079" to="965731247"/>
    <trip id="160" depart="160.00" from="959588027" to="970170419"/>
    <trip id="161" depart="161.00" from="8107784#4" to="964011547"/>
    <trip id="162" depart="162.00" from="-218733208#2" to="517465739"/>
    <trip id="163" depart="163.00" from="256164181" to="965734330#0"/>
    <trip id="164" depart="164.00" from="8106553#1" to="959546321#1"/>
    <trip id="165" depart="165.00" from="8107784#4" to="228144120#1"/>
    <trip id="166" depart="166.00" from="727630527" to="-84545078#1"/>
    <trip id="167" depart="167.00" from="959904834" to="9532053#4"/>
    <trip id="168" depart="168.00" from="188992752#5" to="815576213#1"/>
    <trip id="169" depart="169.00" from="279478624#2" to="253055133"/>
    <trip id="170" depart="170.00" from="8095261" to="218524085#5"/>
    <trip id="171" depart="171.00" from="-218524085#5" to="136463493#0"/>
    <trip id="172" depart="172.00" from="253082666" to="959546322"/>
    <trip id="173" depart="173.00" from="970167298#0" to="240380121#1"/>
    <trip id="174" depart="174.00" from="378670413#0-AddedOffRampEdge" to="278727381#1"/>
    <trip id="175" depart="175.00" from="970173545#0" to="287525605#4"/>
    <trip id="176" depart="176.00" from="965755552" to="-87293832#1"/>
    <trip id="177" depart="177.00" from="970169180#0" to="1222456203#6"/>
    <trip id="178" depart="178.00" from="9677624" to="227815901#3"/>
    <trip id="179" depart="179.00" from="-8106567#1" to="279348362#12"/>
    <trip id="180" depart="180.00" from="510511170#1" to="253062337#0"/>
    <trip id="181" depart="181.00" from="295804676" to="284019466#3"/>
    <trip id="182" depart="182.00" from="278361643" to="29192718#4"/>
    <trip id="183" depart="183.00" from="222585219#2" to="497935296"/>
    <trip id="184" depart="184.00" from="-1025613949#1" to="965707624#1"/>
    <trip id="185" depart="185.00" from="287143498" to="5060663#0"/>
    <trip id="186" depart="186.00" from="517465746" to="4560287#1"/>
    <trip id="187" depart="187.00" from="276277632#0" to="-28975512#0"/>
    <trip id="188" depart="188.00" from="4498809#9" to="256207892#1"/>
    <trip id="189" depart="189.00" from="253055182#1" to="929673545#0"/>
    <trip id="190" depart="190.00" from="498068502" to="251870228#4"/>
    <trip id="191" depart="191.00" from="251992223#1" to="279099847-AddedOffRampEdge"/>
    <trip id="192" depart="192.00" from="278697220#4" to="251808134#0"/>
    <trip id="193" depart="193.00" from="-9532058#1" to="279162762#0"/>
    <trip id="194" depart="194.00" from="965764448" to="45978082#1"/>
    <trip id="195" depart="195.00" from="964415658" to="31559241"/>
    <trip id="196" depart="196.00" from="244672380#5" to="289585808"/>
    <trip id="197" depart="197.00" from="-100293143#1" to="240380147#4"/>
    <trip id="198" depart="198.00" from="279162768" to="29192744#2"/>
    <trip id="199" depart="199.00" from="42005526#1" to="279546109#2"/>
    <trip id="200" depart="200.00" from="279348365#1" to="188992751#2"/>
    <trip id="201" depart="201.00" from="279579186" to="964405636#0"/>
    <trip id="202" depart="202.00" from="8095264#0" to="113743354#0"/>
    <trip id="203" depart="203.00" from="-447791053" to="284031798#0"/>
    <trip id="204" depart="204.00" from="366029358#1" to="256766495#0"/>
    <trip id="205" depart="205.00" from="815576432#0" to="5364984#2"/>
    <trip id="206" depart="206.00" from="4543351#3" to="202714012#0"/>
    <trip id="207" depart="207.00" from="136463491#0" to="-218733208#1"/>
    <trip id="208" depart="208.00" from="222005529" to="280327352"/>
    <trip id="209" depart="209.00" from="93418913" to="-29192719#0"/>
    <trip id="210" depart="210.00" from="279099869#0" to="370657355"/>
    <trip id="211" depart="211.00" from="1341849047" to="4725030#2"/>
    <trip id="212" depart="212.00" from="28093726" to="222469868"/>
    <trip id="213" depart="213.00" from="425343183#0" to="-107916724#4"/>
    <trip id="214" depart="214.00" from="518718608" to="656301129#0"/>
    <trip id="215" depart="215.00" from="-8106561#3" to="279162774#0"/>
    <trip id="216" depart="216.00" from="114413608#1" to="9677554#2"/>
    <trip id="217" depart="217.00" from="284021502#5" to="-279465214#1"/>
    <trip id="218" depart="218.00" from="222236657#1" to="929673546#0"/>
    <trip id="219" depart="219.00" from="279465746#1" to="8106560#2"/>
    <trip id="220" depart="220.00" from="4527482#2" to="970173989"/>
    <trip id="221" depart="221.00" from="29433039#0" to="966789700#0"/>
    <trip id="222" depart="222.00" from="964074561#0" to="314924435#0"/>
    <trip id="223" depart="223.00" from="498068501#1" to="283209463"/>
    <trip id="224" depart="224.00" from="8662670#1" to="289585808"/>
    <trip id="225" depart="225.00" from="964353751#2" to="518693514"/>
    <trip id="226" depart="226.00" from="279968493" to="224943521"/>
    <trip id="227" depart="227.00" from="222236271#1" to="378670418#2"/>
    <trip id="228" depart="228.00" from="580613821#1" to="285603002"/>
    <trip id="229" depart="229.00" from="345789979#0" to="240377406#0"/>
    <trip id="230" depart="230.00" from="-30636627#0" to="240380146#3"/>
    <trip id="231" depart="231.00" from="228144118#1" to="253082653#0"/>
    <trip id="232" depart="232.00" from="287525605#2" to="1008778880"/>
    <trip id="233" depart="233.00" from="202714012#0" to="4725013#2"/>
    <trip id="234" depart="234.00" from="4894658#2" to="-283262248"/>
    <trip id="235" depart="235.00" from="278912553#1" to="289089524#1"/>
    <trip id="236" depart="236.00" from="279099896#1" to="172426385#1"/>
    <trip id="237" depart="237.00" from="279160690#3" to="964426076"/>
    <trip id="238" depart="238.00" from="29192744#0" to="4725029#4"/>
    <trip id="239" depart="239.00" from="945183544#1" to="6149140"/>
    <trip id="240" depart="240.00" from="278275976#0" to="-107916724#5"/>
    <trip id="241" depart="241.00" from="265652521#2" to="541727851#0"/>
    <trip id="242" depart="242.00" from="945120644#0" to="9677440#0"/>
    <trip id="243" depart="243.00" from="279160687#2" to="518718613#0"/>
    <trip id="244" depart="244.00" from="288999294" to="297342363#0"/>
    <trip id="245" depart="245.00" from="188992751#3" to="190729473"/>
    <trip id="246" depart="246.00" from="279164147#2" to="-222585219#1"/>
    <trip id="247" depart="247.00" from="256199406" to="4600644#1"/>
    <trip id="248" depart="248.00" from="278725054#0" to="107918575"/>
    <trip id="249" depart="249.00" from="279484950#10" to="-964085841#0"/>
    <trip id="250" depart="250.00" from="31654384#2" to="-222469876#1"/>
    <trip id="251" depart="251.00" from="278510723#0" to="29123832#0"/>
    <trip id="252" depart="252.00" from="-222469873" to="386016125#0"/>
    <trip id="253" depart="253.00" from="-965032703#0" to="279484950#2"/>
    <trip id="254" depart="254.00" from="-279465214#1" to="278358667#0"/>
    <trip id="255" depart="255.00" from="172426376#2" to="256189196#1"/>
    <trip id="256" depart="256.00" from="568364898#1" to="278358667#0"/>
    <trip id="257" depart="257.00" from="518718615#0" to="8662964"/>
    <trip id="258" depart="258.00" from="222469876#2" to="-427921173#0"/>
    <trip id="259" depart="259.00" from="-181034075" to="288357116"/>
    <trip id="260" depart="260.00" from="984086647#2" to="269690097#1"/>
    <trip id="261" depart="261.00" from="392267560#1" to="70944858#3"/>
    <trip id="262" depart="262.00" from="40863986#3" to="541764085#0"/>
    <trip id="263" depart="263.00" from="966578574#0" to="160511867#1"/>
    <trip id="264" depart="264.00" from="-181134378" to="1033873896"/>
    <trip id="265" depart="265.00" from="-9532053#1" to="4545273#0"/>
    <trip id="266" depart="266.00" from="28992495#0" to="188993500#4"/>
    <trip id="267" depart="267.00" from="4725029#2" to="644050022#1"/>
    <trip id="268" depart="268.00" from="107120215#6" to="30120522#1"/>
    <trip id="269" depart="269.00" from="518693516" to="-8662967#0"/>
    <trip id="270" depart="270.00" from="82659312#1" to="970154453#1"/>
    <trip id="271" depart="271.00" from="-8106567#0" to="-218733320#1"/>
    <trip id="272" depart="272.00" from="253055140#0" to="45978082#1"/>
    <trip id="273" depart="273.00" from="9677554#2" to="278697220#6"/>
    <trip id="274" depart="274.00" from="497935303" to="-29468392"/>
    <trip id="275" depart="275.00" from="4606527#8" to="361219111#0"/>
    <trip id="276" depart="276.00" from="-8095264#1" to="658734429#3"/>
    <trip id="277" depart="277.00" from="93418917" to="29468407#1"/>
    <trip id="278" depart="278.00" from="-884665153" to="970173560"/>
    <trip id="279" depart="279.00" from="701084083" to="266432236#1"/>
    <trip id="280" depart="280.00" from="279162765#3" to="278266546#0"/>
    <trip id="281" depart="281.00" from="281820372#0" to="256924423#3"/>
    <trip id="282" depart="282.00" from="93418912" to="8658685#3"/>
    <trip id="283" depart="283.00" from="-8106560#1" to="9677604#4"/>
    <trip id="284" depart="284.00" from="375217685" to="8662330"/>
    <trip id="285" depart="285.00" from="4902343#1" to="279348362#6"/>
    <trip id="286" depart="286.00" from="516261784" to="970166463"/>
    <trip id="287" depart="287.00" from="227815552#0" to="8107784#3"/>
    <trip id="288" depart="288.00" from="287143340" to="280414000#1"/>
    <trip id="289" depart="289.00" from="279164147#1" to="5171066#1"/>
    <trip id="290" depart="290.00" from="227814054#2" to="936876471#1"/>
    <trip id="291" depart="291.00" from="8662670#2" to="-4600772#2"/>
    <trip id="292" depart="292.00" from="964011547" to="222236909"/>
    <trip id="293" depart="293.00" from="279484650#0" to="30684436"/>
    <trip id="294" depart="294.00" from="278275446" to="-222585219#0"/>
    <trip id="295" depart="295.00" from="936876469#3" to="1222457352"/>
    <trip id="296" depart="296.00" from="172426376#4" to="8097768"/>
    <trip id="297" depart="297.00" from="256207906#0" to="963777812"/>
    <trip id="298" depart="298.00" from="4725033#0" to="240377410#3"/>
    <trip id="299" depart="299.00" from="-1338494550" to="966555433#1"/>
    <trip id="300" depart="300.00" from="-454269548" to="506294509"/>
    <trip id="301" depart="301.00" from="280413904#2" to="568364898#2"/>
    <trip id="302" depart="302.00" from="4606527#8" to="40863986#0"/>
    <trip id="303" depart="303.00" from="280764955#1" to="8095261"/>
    <trip id="304" depart="304.00" from="-506294509" to="197593195#1"/>
    <trip id="305" depart="305.00" from="4608763#1" to="253055169"/>
    <trip id="306" depart="306.00" from="29192718#5" to="280247418"/>
    <trip id="307" depart="307.00" from="285768126#1" to="279163180"/>
    <trip id="308" depart="308.00" from="518112761#1" to="256207895#1"/>
    <trip id="309" depart="309.00" from="4887834#0" to="237810125#1"/>
    <trip id="310" depart="310.00" from="222469875#1" to="-9532053#3"/>
    <trip id="311" depart="311.00" from="133116496#1" to="-945183545"/>
    <trip id="312" depart="312.00" from="286006490" to="580613821#0"/>
    <trip id="313" depart="313.00" from="1222456203#5" to="188993274"/>
    <trip id="314" depart="314.00" from="280412802#0" to="510486902#3"/>
    <trip id="315" depart="315.00" from="970170419-AddedOffRampEdge" to="285603469#1"/>
    <trip id="316" depart="316.00" from="240377410#6" to="-8106552"/>
    <trip id="317" depart="317.00" from="1339448165" to="218524085#4"/>
    <trip id="318" depart="318.00" from="116651083#1" to="-152616166"/>
    <trip id="319" depart="319.00" from="285883731#4" to="240299063#0"/>
    <trip id="320" depart="320.00" from="970170410" to="289666157#2"/>
    <trip id="321" depart="321.00" from="4721044#0" to="-964011555"/>
    <trip id="322" depart="322.00" from="959599425" to="281335824#0"/>
    <trip id="323" depart="323.00" from="962025781#0" to="29184697#3"/>
    <trip id="324" depart="324.00" from="279485073#2" to="279402173#2"/>
    <trip id="325" depart="325.00" from="1222456203#1" to="-279484836#0"/>
    <trip id="326" depart="326.00" from="965764451" to="280331694#2"/>
    <trip id="327" depart="327.00" from="84545079#0" to="278736310"/>
    <trip id="328" depart="328.00" from="-29192719#2" to="369781652"/>
    <trip id="329" depart="329.00" from="-279567769" to="1028397102"/>
    <trip id="330" depart="330.00" from="28975512#1" to="251994145-AddedOffRampEdge"/>
    <trip id="331" depart="331.00" from="9704062#1" to="-91979798"/>
    <trip id="332" depart="332.00" from="577365177" to="30120518#0"/>
    <trip id="333" depart="333.00" from="75414453" to="202714125"/>
    <trip id="334" depart="334.00" from="284136901#1" to="279465746#1"/>
    <trip id="335" depart="335.00" from="279352166#2" to="9532060#1"/>
    <trip id="336" depart="336.00" from="970176805#0" to="253055137#1"/>
    <trip id="337" depart="337.00" from="31559243#0" to="30636946"/>
    <trip id="338" depart="338.00" from="517461087" to="966301929#1"/>
    <trip id="339" depart="339.00" from="160511867#6" to="181034619"/>
    <trip id="340" depart="340.00" from="447939110#1" to="1037191316#0"/>
    <trip id="341" depart="341.00" from="1088051422" to="-29433061#0"/>
    <trip id="342" depart="342.00" from="-1028708985#1" to="279465746#1"/>
    <trip id="343" depart="343.00" from="293330669" to="244672364#3"/>
    <trip id="344" depart="344.00" from="202714012#1" to="497789345#0"/>
    <trip id="345" depart="345.00" from="4887846" to="279478624#2"/>
    <trip id="346" depart="346.00" from="4600772#2" to="965702093"/>
    <trip id="347" depart="347.00" from="736795114#1" to="358275980#2"/>
    <trip id="348" depart="348.00" from="447939111#2" to="965739923#0"/>
    <trip id="349" depart="349.00" from="279161392" to="289533703#1"/>
    <trip id="350" depart="350.00" from="386016124#1" to="964691302#0"/>
    <trip id="351" depart="351.00" from="8661218#0" to="-29123828#1"/>
    <trip id="352" depart="352.00" from="103871564#0" to="253055182#1"/>
    <trip id="353" depart="353.00" from="518694395" to="29182630#1"/>
    <trip id="354" depart="354.00" from="240380133" to="-959546322"/>
    <trip id="355" depart="355.00" from="4605588#0" to="488882039"/>
    <trip id="356" depart="356.00" from="965969564" to="281749561#1"/>
    <trip id="357" depart="357.00" from="280903473" to="-386016128#0"/>
    <trip id="358" depart="358.00" from="-276283729" to="279252530#1"/>
    <trip id="359" depart="359.00" from="253072124#12" to="222585334"/>
    <trip id="360" depart="360.00" from="-4902344#0" to="9677607#2"/>
    <trip id="361" depart="361.00" from="884984287#0" to="29192212"/>
    <trip id="362" depart="362.00" from="966789700#1" to="984086647#0"/>
    <trip id="363" depart="363.00" from="4543351#1" to="236831668"/>
    <trip id="364" depart="364.00" from="-277880835" to="550447876"/>
    <trip id="365" depart="365.00" from="279485806#1" to="427905382"/>
    <trip id="366" depart="366.00" from="964734143#1" to="1222456210#4"/>
    <trip id="367" depart="367.00" from="29193868" to="378662403#0"/>
    <trip id="368" depart="368.00" from="280765282" to="-506294509"/>
    <trip id="369" depart="369.00" from="256924423#3" to="256207903"/>
    <trip id="370" depart="370.00" from="4543344#6" to="9532047#1"/>
    <trip id="371" depart="371.00" from="255606408" to="4721044#1"/>
    <trip id="372" depart="372.00" from="240380131" to="966005056"/>
    <trip id="373" depart="373.00" from="815547606" to="289660481#2"/>
    <trip id="374" depart="374.00" from="279464533" to="253069598"/>
    <trip id="375" depart="375.00" from="253072124#5" to="970169180#0"/>
    <trip id="376" depart="376.00" from="278724838#1" to="284021971#0"/>
    <trip id="377" depart="377.00" from="970173989" to="4498349#0"/>
    <trip id="378" depart="378.00" from="288063861#1" to="279160687#2"/>
    <trip id="379" depart="379.00" from="1222456209" to="276283731#0"/>
    <trip id="380" depart="380.00" from="538108843#1" to="361219107#0"/>
    <trip id="381" depart="381.00" from="5580329" to="161536133#1"/>
    <trip id="382" depart="382.00" from="289533703#2" to="965725819"/>
    <trip id="383" depart="383.00" from="279252531" to="4880554#3"/>
    <trip id="384" depart="384.00" from="-884668794" to="970169189#1"/>
    <trip id="385" depart="385.00" from="299672709#0" to="222005589"/>
    <trip id="386" depart="386.00" from="1028708985#0" to="289660483#3"/>
    <trip id="387" depart="387.00" from="289563851#1" to="-6148187#1"/>
    <trip id="388" depart="388.00" from="970320566" to="964727550#2"/>
    <trip id="389" depart="389.00" from="279478938" to="-88542222#1"/>
    <trip id="390" depart="390.00" from="8662967#0" to="281599130#1"/>
    <trip id="391" depart="391.00" from="497935310" to="283271325#4"/>
    <trip id="392" depart="392.00" from="23432915#1" to="884665153"/>
    <trip id="393" depart="393.00" from="970172109#2" to="222236909"/>
    <trip id="394" depart="394.00" from="289550420" to="278398737"/>
    <trip id="395" depart="395.00" from="965678279#0" to="283271325#2"/>
    <trip id="396" depart="396.00" from="963772291" to="959546321#1"/>
    <trip id="397" depart="397.00" from="237810122#3" to="789133915"/>
    <trip id="398" depart="398.00" from="279099894#0" to="965739925"/>
    <trip id="399" depart="399.00" from="282187977#1" to="84545079#1"/>
    <trip id="400" depart="400.00" from="240377410#6" to="251870225"/>
    <trip id="401" depart="401.00" from="29221201" to="972079248#1"/>
    <trip id="402" depart="402.00" from="280761616#0" to="1028130735"/>
    <trip id="403" depart="403.00" from="287143498" to="265652521#1"/>
    <trip id="404" depart="404.00" from="289563851#0" to="289092198#1"/>
    <trip id="405" depart="405.00" from="279464542#2" to="253082665#1"/>
    <trip id="406" depart="406.00" from="1222457352" to="4880554#0"/>
    <trip id="407" depart="407.00" from="291702377#0" to="219663758#0"/>
    <trip id="408" depart="408.00" from="658734429#2" to="-278510278#0"/>
    <trip id="409" depart="409.00" from="517467234" to="497772945"/>
    <trip id="410" depart="410.00" from="8107787#1" to="278429106#2"/>
    <trip id="411" depart="411.00" from="4498809#14" to="84548482"/>
    <trip id="412" depart="412.00" from="970173543#1" to="281465646#3"/>
    <trip id="413" depart="413.00" from="-275829028#2" to="282186017#2"/>
    <trip id="414" depart="414.00" from="29232694#1" to="959608352#2"/>
    <trip id="415" depart="415.00" from="963030990" to="279402173#0"/>