<?xml version="1.0" encoding="utf-8"?>
<configuration xmlns:xsi="http://www.w3.org/2001/XMLSchema-instance" xsi:noNamespaceSchemaLocation="http://sumo.sf.net/xsd/sumoConfiguration.xsd">

	<input>
		<net-file value="Belo_Horizonte.net.xml"/>
		<route-files value="Belo_Horizonte.rou.xml"/>
	</input>

	<time>
		<begin value="0"/>
		<end value="1000"/>
	</time>
</configuration>
